16
c1c1im+
NA           0.00000     0.00000     0.00000
CR           1.31500     0.00000     0.00000
NA           1.76060     1.23720     0.00000
CW           0.67188     2.08193     0.00000
CW          -0.42536     1.31099     0.00000
C1          -0.87045    -1.17961     0.00000
HCR          1.93601    -0.88360     0.00000
C1           3.16629     1.65338     0.00000
HCW          0.69747     3.16163     0.00000
HCW         -1.44980     1.65292     0.00000
H1          -1.49986    -1.16734    -0.88982
H1          -0.25973    -2.08245    -0.00000
H1          -1.49986    -1.16734     0.88982
H1           3.36933     2.24927     0.88982
H1           3.80686     0.77147     0.00000
H1           3.36933     2.24927    -0.88982
